/*--------------------------------*- C++ -*----------------------------------*\
| =========                 |                                                 |
| \\      /  F ield         | OpenFOAM: The Open Source CFD Toolbox           |
|  \\    /   O peration     | Version:  v2412                                 |
|   \\  /    A nd           | Website:  www.openfoam.com                      |
|    \\/     M anipulation  |                                                 |
\*---------------------------------------------------------------------------*/
FoamFile
{
    version     2.0;
    format      ascii;
    class       dictionary;
    object      thermophysicalProperties.liquid;
}
// * * * * * * * * * * * * * * * * * * * * * * * * * * * * * * * * * * * * * //

thermoType
{
    type            heRhoThermo;
    mixture         multiComponentMixture;
    transport       const;
    thermo          eConst;
    // equationOfState rhoConst;
    equationOfState perfectFluid;
    specie          specie;
    energy          sensibleInternalEnergy;
}

species
(
    water
    particle
);

inertSpecie water;

"(mixture|water)"
{
    specie
    {
        molWeight   18.0153;
    }
    equationOfState
    {
        R          3000;
        rho0        1027;
    }
    thermodynamics
    {
        Hf          -1.5879e+07;
        Cv          4195;
    }
    transport
    {
        mu          3.645e-4;
        Pr          2.289;
    }
}

particle
{
    specie
    {
        molWeight   50000.0;
    }
    equationOfState
    {
        R          3000;
        rho0        2600;
    }
    thermodynamics
    {
        Hf          0;
        Cv          4195;
    }
    transport
    {
        mu          3.645e-4;
        Pr          2.289;
    }
}


// ************************************************************************* //
